pglib_opf_case24_ieee_rts/dapi/pglib_opf_case24_ieee_rts_2regions_dapi.m
% -------------------------------------------------------------------------
% Partitioned MATPOWER Case File
% Copyright (c) 2025 Milad Hasanzadeh
% Generated on: 2026-06-14
% This file contains partitioned data for 2 regions


% -------------------- mpc_regionR1 --------------------

mpc_regionR1.version = '2';
mpc_regionR1.baseMVA = 100.0000;
mpc_regionR1.bus = [
%	bus_i       type        Pd          Qd          Gs          Bs          area        Vm          Va          baseKV      zone        Vmax        Vmin        
	 1	 2	 207.3	 22	 0	 0	 1	 1	 0	 138	 1	 1.05	 0.95;
	 2	 2	 186.19	 20	 0	 0	 1	 1	 0	 138	 1	 1.05	 0.95;
	 3	 1	 345.5	 37	 0	 0	 1	 1	 0	 138	 1	 1.05	 0.95;
	 4	 1	 142.04	 15	 0	 0	 1	 1	 0	 138	 1	 1.05	 0.95;
	 5	 1	 136.28	 14	 0	 0	 1	 1	 0	 138	 1	 1.05	 0.95;
	 6	 1	 261.05	 28	 0	-100	 2	 1	 0	 138	 1	 1.05	 0.95;
	 7	 2	 239.93	 25	 0	 0	 2	 1	 0	 138	 1	 1.05	 0.95;
	 8	 1	 328.23	 35	 0	 0	 2	 1	 0	 138	 1	 1.05	 0.95;
	 9	 1	 335.91	 36	 0	 0	 1	 1	 0	 138	 1	 1.05	 0.95;
	 10	 1	 374.29	 40	 0	 0	 2	 1	 0	 138	 1	 1.05	 0.95;
	 11	 1	 0	 0	 0	 0	 3	 1	 0	 230	 1	 1.05	 0.95;
	 12	 1	 0	 0	 0	 0	 3	 1	 0	 230	 1	 1.05	 0.95;
	 13	 3	 508.66	 54	 0	 0	 3	 1	 0	 230	 1	 1.05	 0.95;
	 14	 2	 0	 0	 0	 0	 3	 1	 0	 230	 1	 1.05	 0.95;
];

mpc_regionR1.gen = [
%	bus         Pg          Qg          Qmax        Qmin        Vg          mBase       status      Pmax        Pmin        Pc1         Pc2         Qc1min      Qc1max      Qc2min      Qc2max      ramp_agc    ramp_10     ramp_30     ramp_q      apf         
	 1	 43.5	 0	 40	-40	 1	 100	 1	 79	 8;
	 1	 109.5	 0	 106	-106	 1	 100	 1	 211	 8;
	 1	 41.3	 0	 38	-38	 1	 100	 1	 75	 7.6;
	 1	 42.8	 0	 39	-39	 1	 100	 1	 78	 7.6;
	 2	 98	 0	 94	-94	 1	 100	 1	 188	 8;
	 2	 95	 0	 91	-91	 1	 100	 1	 182	 8;
	 2	 91.8	 0	 88	-88	 1	 100	 1	 176	 7.6;
	 2	 335.3	 0	 332	-332	 1	 100	 1	 663	 7.6;
	 7	 221.25	 0	 215	-215	 1	 100	 1	 430	 12.5;
	 7	 82.75	 0	 77	-77	 1	 100	 1	 153	 12.5;
	 7	 303.75	 0	 298	-298	 1	 100	 1	 595	 12.5;
	 13	 289.25	 0	 272	-272	 1	 100	 1	 544	 34.5;
	 13	 288.25	 0	 271	-271	 1	 100	 1	 542	 34.5;
	 13	 321.75	 0	 305	-305	 1	 100	 1	 609	 34.5;
	 14	 224.075	 0	 211	-211	 1	 100	 1	 421	 27.15;
	 14	 159.575	 0	 146	-146	 1	 100	 1	 292	 27.15;
	 14	 226	 0	 191	-191	 1	 100	 1	 382	 70;
];

mpc_regionR1.branch = [
%	fbus        tbus        r           x           b           rateA       rateB       rateC       ratio       angle       status      angmin      angmax      
	 1	 2	 0.0026	 0.0139	 0.4611	 175	 193	 200	 0	 0	 1	-30	 30;
	 1	 3	 0.0546	 0.2112	 0.0572	 175	 208	 220	 0	 0	 1	-30	 30;
	 1	 5	 0.0218	 0.0845	 0.0229	 175	 208	 220	 0	 0	 1	-30	 30;
	 2	 4	 0.0328	 0.1267	 0.0343	 175	 208	 220	 0	 0	 1	-30	 30;
	 2	 6	 0.0497	 0.192	 0.052	 175	 208	 220	 0	 0	 1	-30	 30;
	 3	 9	 0.0308	 0.119	 0.0322	 175	 208	 220	 0	 0	 1	-30	 30;
	 4	 9	 0.0268	 0.1037	 0.0281	 175	 208	 220	 0	 0	 1	-30	 30;
	 5	 10	 0.0228	 0.0883	 0.0239	 175	 208	 220	 0	 0	 1	-30	 30;
	 6	 10	 0.0139	 0.0605	 2.459	 175	 193	 200	 0	 0	 1	-30	 30;
	 7	 8	 0.0159	 0.0614	 0.0166	 175	 208	 220	 0	 0	 1	-30	 30;
	 8	 9	 0.0427	 0.1651	 0.0447	 175	 208	 220	 0	 0	 1	-30	 30;
	 8	 10	 0.0427	 0.1651	 0.0447	 175	 208	 220	 0	 0	 1	-30	 30;
	 9	 11	 0.0023	 0.0839	 0	 400	 510	 600	 1.03	 0	 1	-30	 30;
	 9	 12	 0.0023	 0.0839	 0	 400	 510	 600	 1.03	 0	 1	-30	 30;
	 10	 11	 0.0023	 0.0839	 0	 400	 510	 600	 1.02	 0	 1	-30	 30;
	 10	 12	 0.0023	 0.0839	 0	 400	 510	 600	 1.02	 0	 1	-30	 30;
	 11	 13	 0.0061	 0.0476	 0.0999	 500	 600	 625	 0	 0	 1	-30	 30;
	 12	 13	 0.0061	 0.0476	 0.0999	 500	 600	 625	 0	 0	 1	-30	 30;
	 12	 14	 0.0124	 0.0966	 0.203	 500	 600	 625	 0	 0	 1	-30	 30;
	 13	 14	 0.0111	 0.0865	 0.1818	 500	 600	 625	 0	 0	 1	-30	 30;
];

mpc_regionR1.gencost = [
%	2           startup     shutdown    n           c(n-1)...c0 
	 2	 1500	 0	 3	 0	 130	 400.6849;
	 2	 1500	 0	 3	 0	 130	 400.6849;
	 2	 1500	 0	 3	 0.014142	 16.0811	 212.3076;
	 2	 1500	 0	 3	 0.014142	 16.0811	 212.3076;
	 2	 1500	 0	 3	 0	 130	 400.6849;
	 2	 1500	 0	 3	 0	 130	 400.6849;
	 2	 1500	 0	 3	 0.014142	 16.0811	 212.3076;
	 2	 1500	 0	 3	 0.014142	 16.0811	 212.3076;
	 2	 1500	 0	 3	 0.052672	 43.6615	 781.521;
	 2	 1500	 0	 3	 0.052672	 43.6615	 781.521;
	 2	 1500	 0	 3	 0.052672	 43.6615	 781.521;
	 2	 1500	 0	 3	 0.00717	 48.5804	 832.7575;
	 2	 1500	 0	 3	 0.00717	 48.5804	 832.7575;
	 2	 1500	 0	 3	 0.00717	 48.5804	 832.7575;
	 2	 1500	 0	 3	 0.008342	 12.3883	 382.2391;
	 2	 1500	 0	 3	 0.008342	 12.3883	 382.2391;
	 2	 1500	 0	 3	 0.004895	 11.8495	 665.1094;
];


% -------------------- mpc_regionR2 --------------------

mpc_regionR2.version = '2';
mpc_regionR2.baseMVA = 100.0000;
mpc_regionR2.bus = [
%	bus_i       type        Pd          Qd          Gs          Bs          area        Vm          Va          baseKV      zone        Vmax        Vmin        
	 1	 2	 372.37	 39	 0	 0	 3	 1	 0	 230	 1	 1.05	 0.95;
	 2	 2	 608.47	 64	 0	 0	 4	 1	 0	 230	 1	 1.05	 0.95;
	 3	 2	 191.95	 20	 0	 0	 4	 1	 0	 230	 1	 1.05	 0.95;
	 4	 1	 0	 0	 0	 0	 4	 1	 0	 230	 1	 1.05	 0.95;
	 5	 2	 639.18	 68	 0	 0	 4	 1	 0	 230	 1	 1.05	 0.95;
	 6	 1	 347.42	 37	 0	 0	 3	 1	 0	 230	 1	 1.05	 0.95;
	 7	 1	 245.69	 26	 0	 0	 3	 1	 0	 230	 1	 1.05	 0.95;
	 8	 2	 0	 0	 0	 0	 4	 1	 0	 230	 1	 1.05	 0.95;
	 9	 2	 0	 0	 0	 0	 4	 1	 0	 230	 1	 1.05	 0.95;
	 10	 1	 0	 0	 0	 0	 4	 1	 0	 230	 1	 1.05	 0.95;
];

mpc_regionR2.gen = [
%	bus         Pg          Qg          Qmax        Qmin        Vg          mBase       status      Pmax        Pmin        Pc1         Pc2         Qc1min      Qc1max      Qc2min      Qc2max      ramp_agc    ramp_10     ramp_30     ramp_q      apf         
	 1	 0	 0	 250.8	-250.8	 1	 100	 1	 0	 0;
	 2	 80.1	 0	 94.8	-94.8	 1	 100	 1	 159	 1.2;
	 2	 103.6	 0	 103	-103	 1	 100	 1	 206	 1.2;
	 2	 98.1	 0	 98	-98	 1	 100	 1	 195	 1.2;
	 2	 81.6	 0	 94.8	-94.8	 1	 100	 1	 162	 1.2;
	 2	 70.1	 0	 94.8	-94.8	 1	 100	 1	 139	 1.2;
	 2	 116.575	 0	 103	-103	 1	 100	 1	 206	 27.15;
	 3	 307.575	 0	 294	-294	 1	 100	 1	 588	 27.15;
	 5	 216	 4.5	 200	-191	 1	 100	 1	 382	 50;
	 8	 362.5	 0	 338	-338	 1	 100	 1	 675	 50;
	 9	 113.5	 0	 111	-111	 1	 100	 1	 222	 5;
	 9	 94.5	 0	 92	-92	 1	 100	 1	 184	 5;
	 9	 75.5	 0	 73	-73	 1	 100	 1	 146	 5;
	 9	 119	 0	 117	-117	 1	 100	 1	 233	 5;
	 9	 110.5	 0	 108	-108	 1	 100	 1	 216	 5;
	 9	 44	 0	 42	-42	 1	 100	 1	 83	 5;
];

mpc_regionR2.branch = [
%	fbus        tbus        r           x           b           rateA       rateB       rateC       ratio       angle       status      angmin      angmax      
	 1	 3	 0.005	 0.0389	 0.0818	 500	 600	 625	 0	 0	 1	-30	 30;
	 2	 3	 0.0022	 0.0173	 0.0364	 500	 600	 625	 0	 0	 1	-30	 30;
	 2	 8	 0.0063	 0.049	 0.103	 500	 600	 625	 0	 0	 1	-30	 30;
	 2	 8	 0.0063	 0.049	 0.103	 500	 600	 625	 0	 0	 1	-30	 30;
	 2	 10	 0.0067	 0.0519	 0.1091	 500	 600	 625	 0	 0	 1	-30	 30;
	 3	 4	 0.0033	 0.0259	 0.0545	 500	 600	 625	 0	 0	 1	-30	 30;
	 3	 6	 0.003	 0.0231	 0.0485	 500	 600	 625	 0	 0	 1	-30	 30;
	 4	 5	 0.0018	 0.0144	 0.0303	 500	 600	 625	 0	 0	 1	-30	 30;
	 4	 9	 0.0135	 0.1053	 0.2212	 500	 600	 625	 0	 0	 1	-30	 30;
	 5	 8	 0.0033	 0.0259	 0.0545	 500	 600	 625	 0	 0	 1	-30	 30;
	 5	 8	 0.0033	 0.0259	 0.0545	 500	 600	 625	 0	 0	 1	-30	 30;
	 6	 7	 0.0051	 0.0396	 0.0833	 500	 600	 625	 0	 0	 1	-30	 30;
	 6	 7	 0.0051	 0.0396	 0.0833	 500	 600	 625	 0	 0	 1	-30	 30;
	 8	 9	 0.0087	 0.0678	 0.1424	 500	 600	 625	 0	 0	 1	-30	 30;
];

mpc_regionR2.gencost = [
%	2           startup     shutdown    n           c(n-1)...c0 
	 2	 1500	 0	 3	 0	 0	 0;
	 2	 1500	 0	 3	 0.328412	 56.564	 86.3852;
	 2	 1500	 0	 3	 0.328412	 56.564	 86.3852;
	 2	 1500	 0	 3	 0.328412	 56.564	 86.3852;
	 2	 1500	 0	 3	 0.328412	 56.564	 86.3852;
	 2	 1500	 0	 3	 0.328412	 56.564	 86.3852;
	 2	 1500	 0	 3	 0.008342	 12.3883	 382.2391;
	 2	 1500	 0	 3	 0.008342	 12.3883	 382.2391;
	 2	 1500	 0	 3	 0.000213	 4.4231	 395.3749;
	 2	 1500	 0	 3	 0.000213	 4.4231	 395.3749;
	 2	 1500	 0	 3	 0	 0.001	 0.001;
	 2	 1500	 0	 3	 0	 0.001	 0.001;
	 2	 1500	 0	 3	 0	 0.001	 0.001;
	 2	 1500	 0	 3	 0	 0.001	 0.001;
	 2	 1500	 0	 3	 0	 0.001	 0.001;
	 2	 1500	 0	 3	 0	 0.001	 0.001;
];


% ---------- Interregional Tie-Line Information ----------
% Each row: {From_Region (string), To_Region (string), Branch_Data (1x13 array)}
% Branch_Data: {fbus, tbus, r, x, b, rateA, rateB, rateC, ratio, angle, status, angmin, angmax}

interregional_tielines_total = {
	{'mpc_regionR1', 'mpc_regionR2', [ 3	 10	 0.0023	 0.0839	 0	 400	 510	 600	 1.03	 0	 1	-30	 30]},
	{'mpc_regionR1', 'mpc_regionR2', [ 11	 1	 0.0054	 0.0418	 0.0879	 500	 600	 625	 0	 0	 1	-30	 30]},
	{'mpc_regionR2', 'mpc_regionR1', [ 7	 14	 0.0028	 0.0216	 0.0455	 500	 600	 625	 0	 0	 1	-30	 30]},
	{'mpc_regionR2', 'mpc_regionR1', [ 7	 14	 0.0028	 0.0216	 0.0455	 500	 600	 625	 0	 0	 1	-30	 30]},
};

